Version 4
SHEET 1 2008 680
WIRE -864 -992 -864 -1024
WIRE -512 -784 -528 -784
WIRE -480 -784 -512 -784
WIRE -80 -784 -224 -784
WIRE 80 -784 -80 -784
WIRE 128 -784 80 -784
WIRE -80 -752 -80 -784
WIRE 80 -752 80 -784
WIRE -512 -672 -512 -784
WIRE 80 -656 80 -688
WIRE -352 -624 -352 -688
WIRE -80 -624 -80 -672
WIRE -80 -624 -352 -624
WIRE -512 -576 -512 -608
WIRE -80 -576 -80 -624
WIRE -80 -464 -80 -496
FLAG -864 -912 0
FLAG -864 -1024 Battery+
FLAG -528 -784 Battery+
FLAG -80 -464 0
FLAG 80 -656 0
FLAG -512 -576 0
FLAG 128 -784 Rpi_5v
SYMBOL PowerProducts\\LT1085 -352 -784 R0
SYMATTR InstName U2
SYMBOL voltage -864 -1008 R0
WINDOW 123 0 0 Left 0
WINDOW 39 0 0 Left 0
SYMATTR InstName V1
SYMATTR Value 6.5
SYMBOL res -96 -768 R0
SYMATTR InstName R1
SYMATTR Value 121
SYMBOL res -96 -592 R0
SYMATTR InstName R2
SYMATTR Value 365
SYMBOL cap -528 -672 R0
SYMATTR InstName C1
SYMATTR Value 10pF
SYMBOL cap 64 -752 R0
SYMATTR InstName C2
SYMATTR Value 10µF
TEXT -632 -912 Left 2 ;5V, 3A linear regulator
TEXT -898 -440 Left 2 !.op
